  21
        -22.15354586
 C         -1.0139237009        0.0001157060       -0.3320119090
 C         -0.3010211074        1.2491572923        0.1879180723
 C         -0.3011951696       -1.2490517349        0.1878718396
 C          1.1683390004        1.2516621049       -0.2233071254
 C          1.1681695646       -1.2517772582       -0.2232981267
 C          1.8703096243       -0.0000923733        0.2934985390
 C         -2.4834630882        0.0000222911        0.0795247173
 H         -0.9582190930        0.0002005854       -1.4269602139
 H         -0.3718670923        1.2740378936        1.2781840671
 H         -0.7951641526        2.1435985756       -0.1985907954
 H         -0.7954642203       -2.1434127996       -0.1986469736
 H         -0.3720420205       -1.2738839625        1.2781559690
 H          1.6616052523        2.1443202680        0.1678151692
 H          1.2391547021        1.2815104197       -1.3133695212
 H          1.2390062002       -1.2817145988       -1.3133390411
 H          1.6612233508       -2.1444918905        0.1679208818
 H          2.9153982958       -0.0001245162       -0.0238784763
 H          1.8521966765       -0.0001224730        1.3859698783
 H         -2.5743116471        0.0004900512        1.1639789401
 H         -2.9899376694        0.8819226593       -0.3066017637
 H         -2.9892458557       -0.8827595520       -0.3054682049
  21
        -22.15113349
 C         -1.1122489933        0.0000218520       -0.5145028626
 C         -0.2381762340        1.2535580831       -0.6292216260
 C         -0.2383878558       -1.2536845533       -0.6291281493
 C          0.9168555920        1.2517068211        0.3683094805
 C          0.9170256308       -1.2518884771        0.3680177133
 C          1.7706256887        0.0000071118        0.1948357043
 C         -1.9518436195        0.0002668996        0.7616216833
 H         -1.8103144381        0.0000432832       -1.3613412862
 H         -0.8539509457        2.1435680290       -0.4808316759
 H          0.1737815084        1.3007148165       -1.6406897583
 H          0.1732637362       -1.3011410859       -1.6407262950
 H         -0.8542542920       -2.1435882868       -0.4803514974
 H          0.5290794965        1.2902781537        1.3876858273
 H          1.5293297962        2.1434734060        0.2157452721
 H          1.5296237794       -2.1434327229        0.2147174168
 H          0.5297227508       -1.2910837285        1.3875328835
 H          2.2126467235        0.0001666761       -0.8047182668
 H          2.5863759409       -0.0000177217        0.9213445341
 H         -1.3291329301       -0.0002933503        1.6510282680
 H         -2.5878337518        0.8826358371        0.7925273377
 H         -2.5892311721       -0.8811771712        0.7922368082
  21
        -22.14506372
 C         -0.9640429411       -0.0297123223       -0.3436080720
 C         -0.3228885835        1.3115921127        0.0471203850
 C         -0.2750308466       -1.1633006992        0.4142935280
 C          1.1624121560        1.1597825433        0.3970332832
 C          1.1835513177       -1.3112596719       -0.0356766861
 C          1.7910352795        0.0417204134       -0.4263085728
 C         -2.4654730997       -0.0105775914       -0.0722169089
 H         -0.8142035248       -0.1997298515       -1.4151397719
 H         -0.8523645904        1.7298587988        0.9058744857
 H         -0.4377434992        2.0153007624       -0.7799025018
 H         -0.8076095211       -2.1019227402        0.2494581018
 H         -0.3196401028       -0.9466952597        1.4834891044
 H          1.2773202948        0.9230131366        1.4564763107
 H          1.6827076842        2.1019389513        0.2146035695
 H          1.2404652394       -1.9901349599       -0.8888914390
 H          1.7636692401       -1.7575671349        0.7744866074
 H          1.6138230170        0.2419932735       -1.4847844294
 H          2.8716608262        0.0208832462       -0.2738184456
 H         -2.6586143973        0.0926005099        0.9939024797
 H         -2.9352769873        0.8238140747       -0.5887885570
 H         -2.9298436261       -0.9324361570       -0.4162188960
  21
        -22.14501049
 C         -1.0824003554        0.1037113634       -0.4416245879
 C         -0.2690168865        1.2616445818        0.1555739249
 C         -0.2028576263       -1.1495458821       -0.5952662554
 C          1.1787509779        1.2050408820       -0.3184337264
 C          0.8927738356       -1.1856973820        0.4640569944
 C          1.8811406910       -0.0328156030        0.2531980644
 C         -2.3089844765       -0.1821695072        0.4219031429
 H         -1.4314670859        0.4011919545       -1.4367968341
 H         -0.2881228954        1.2042445516        1.2456938264
 H         -0.7224703725        2.2129157777       -0.1298334671
 H          0.2650876061       -1.1588771616       -1.5816140359
 H         -0.8252082976       -2.0432753572       -0.5208571895
 H          1.7113397683        2.1076299367       -0.0130967443
 H          1.1898921172        1.1728446051       -1.4097887724
 H          1.4226395685       -2.1392508283        0.4235571312
 H          0.4353222838       -1.1105025076        1.4519549553
 H          2.6736964391       -0.3444087329       -0.4299239995
 H          2.3519625658        0.2145767642        1.2066888331
 H         -2.8938679820        0.7244917731        0.5629970227
 H         -2.9447687121       -0.9301393533       -0.0473187728
 H         -2.0094754093       -0.5517859885        1.4004095166
