5
 energy: -21.473095215135 gnorm: 0.000269010680 xtb: 6.4.1-1.fc34.fc34
Cr        0.48021020692662    0.33239374223698    0.12013304226224
O         1.49678204653832    1.03063683656185   -0.77669932367159
O        -0.56159050951617    1.31315292207033    0.64742097263226
F        -0.24343802282657   -0.83604731783767   -0.69400755811731
F         1.23189627887782   -0.36510618303151    1.34496286689438
