5
 energy: -16.749249515488 gnorm: 0.000380551296 xtb: 6.4.1-1.fc34.fc34
Cr        0.48401600768119    0.07911502987545    0.17587910572300
O         1.46725383137659    0.93066850863735   -0.73224404352365
O        -0.52892955738036    1.20464948250874    0.64884959209441
F        -0.44728527838678   -0.66913471913026   -1.02175281354612
F         1.42880499670938   -0.07026830189129    1.57107815925236
