11
 energy: -22.618809235400 gnorm: 0.000025759729 xtb: 6.4.0 (4cdc11a)
Pt       -0.00000007856756   -0.00000002206477   -0.00000010868674
Cl        2.30229939955498    0.04263273027050    0.00000004389420
Cl       -2.30229951004775   -0.04263257914051   -0.00000002612054
N        -0.00560118815380   -2.04618270334684    0.00000000203806
H         0.47593659628961   -2.39843215014774   -0.82958448178644
H         0.47593664765795   -2.39843209598722    0.82958447835953
N         0.00560123043648    2.04618266773069    0.00000001028515
H        -0.47593659397304    2.39843212198496   -0.82958444854776
H        -0.47593655339653    2.39843208868331    0.82958450511095
H         0.97934353088146    2.36213121840266   -0.00000001712825
H        -0.97934348068181   -2.36213127638504    0.00000004258183
