11
 energy: -22.611353289782 gnorm: 0.000197627291 xtb: 6.4.0 (4cdc11a)
Pt       -0.00000449684088   -0.00000012301904   -0.21630620499149
Cl        0.00000161248914    1.63897313298448    1.30523154330430
Cl        0.00000162663365   -1.63897292217798    1.30523195650038
N        -0.00000016695780    1.63213006687304   -1.62100671527553
H         0.82928918740351    1.70251885747651   -2.20321867213221
H        -0.82928852422915    1.70252024539014   -2.20322044341901
N        -0.00000016948130   -1.63213010987884   -1.62100686932329
H        -0.82928855150042   -1.70252023177277   -2.20322055776259
H         0.82928916751668   -1.70251883754120   -2.20321882607369
H         0.00000014939877    2.40398784044610   -0.94551830530188
H         0.00000016556780   -2.40398791878039   -0.94551852552498
